<?xml version="1.0" encoding="UTF-8"?>

<!-- generated on Tue Oct 23 01:25:05 2018 by SUMO netconvert Version 0.32.0
<?xml version="1.0" encoding="UTF-8"?>

<configuration xmlns:xsi="http://www.w3.org/2001/XMLSchema-instance" xsi:noNamespaceSchemaLocation="http://sumo.dlr.de/xsd/netconvertConfiguration.xsd">

    <input>
        <node-files value="hello.nod.xml"/>
        <edge-files value="hello.edg.xml"/>
    </input>

    <output>
        <output-file value="hello.net.xml"/>
    </output>

</configuration>
-->

<net version="0.27" xmlns:xsi="http://www.w3.org/2001/XMLSchema-instance" xsi:noNamespaceSchemaLocation="http://sumo.dlr.de/xsd/net_file.xsd">

    <location netOffset="250.00,0.00" convBoundary="0.00,0.00,501.00,0.00" origBoundary="-250.00,0.00,251.00,0.00" projParameter="!"/>

    <edge id=":1_0" function="internal">
        <lane id=":1_0_0" index="0" speed="13.90" length="4.82" shape="0.00,1.65 -1.24,0.83 -1.65,0.00 -1.24,-0.83 0.00,-1.65"/>
    </edge>
    <edge id=":2_0" function="internal">
        <lane id=":2_0_0" index="0" speed="13.90" length="0.10" shape="500.00,1.65 500.00,1.65"/>
    </edge>
    <edge id=":2_1" function="internal">
        <lane id=":2_1_0" index="0" speed="13.90" length="2.41" shape="500.00,1.65 498.76,0.83 498.35,0.00"/>
    </edge>
    <edge id=":2_4" function="internal">
        <lane id=":2_4_0" index="0" speed="13.90" length="2.41" shape="498.35,0.00 498.76,-0.83 500.00,-1.65"/>
    </edge>
    <edge id=":2_2" function="internal">
        <lane id=":2_2_0" index="0" speed="13.90" length="0.10" shape="500.00,-1.65 500.00,-1.65"/>
    </edge>
    <edge id=":2_3" function="internal">
        <lane id=":2_3_0" index="0" speed="13.90" length="2.41" shape="500.00,-1.65 501.24,-0.83 501.65,0.00"/>
    </edge>
    <edge id=":2_5" function="internal">
        <lane id=":2_5_0" index="0" speed="13.90" length="2.41" shape="501.65,0.00 501.24,0.83 500.00,1.65"/>
    </edge>
    <edge id=":3_0" function="internal">
        <lane id=":3_0_0" index="0" speed="13.90" length="4.82" shape="501.00,-1.65 502.24,-0.83 502.65,0.00 502.24,0.83 501.00,1.65"/>
    </edge>

    <edge id="1to2" from="1" to="2" priority="-1">
        <lane id="1to2_0" index="0" speed="13.90" length="500.00" shape="0.00,-1.65 500.00,-1.65"/>
    </edge>
    <edge id="2to1" from="2" to="1" priority="-1">
        <lane id="2to1_0" index="0" speed="13.90" length="500.00" shape="500.00,1.65 0.00,1.65"/>
    </edge>
    <edge id="2to3" from="2" to="3" priority="-1">
        <lane id="2to3_0" index="0" speed="13.90" length="1.00" shape="500.00,-1.65 501.00,-1.65"/>
    </edge>
    <edge id="3to2" from="3" to="2" priority="-1">
        <lane id="3to2_0" index="0" speed="13.90" length="1.00" shape="501.00,1.65 500.00,1.65"/>
    </edge>

    <junction id="1" type="priority" x="0.00" y="0.00" incLanes="2to1_0" intLanes=":1_0_0" shape="0.00,-0.05 0.00,3.25 0.00,0.05">
        <request index="0" response="0" foes="0" cont="0"/>
    </junction>
    <junction id="2" type="priority" x="500.00" y="0.00" incLanes="3to2_0 1to2_0" intLanes=":2_0_0 :2_4_0 :2_2_0 :2_5_0" shape="500.00,3.25 500.00,-3.25 500.00,3.25">
        <request index="0" response="0000" foes="1000" cont="0"/>
        <request index="1" response="0100" foes="0100" cont="1"/>
        <request index="2" response="0000" foes="0010" cont="0"/>
        <request index="3" response="0001" foes="0001" cont="1"/>
    </junction>
    <junction id="3" type="priority" x="501.00" y="0.00" incLanes="2to3_0" intLanes=":3_0_0" shape="501.00,0.05 501.00,-3.25 501.00,-0.05">
        <request index="0" response="0" foes="0" cont="0"/>
    </junction>

    <junction id=":2_4_0" type="internal" x="498.35" y="0.00" incLanes=":2_1_0 1to2_0" intLanes=":2_2_0"/>
    <junction id=":2_5_0" type="internal" x="501.65" y="0.00" incLanes=":2_3_0 3to2_0" intLanes=":2_0_0"/>

    <connection from="1to2" to="2to3" fromLane="0" toLane="0" via=":2_2_0" dir="s" state="M"/>
    <connection from="1to2" to="2to1" fromLane="0" toLane="0" via=":2_3_0" dir="t" state="m"/>
    <connection from="2to1" to="1to2" fromLane="0" toLane="0" via=":1_0_0" dir="t" state="M"/>
    <connection from="2to3" to="3to2" fromLane="0" toLane="0" via=":3_0_0" dir="t" state="M"/>
    <connection from="3to2" to="2to1" fromLane="0" toLane="0" via=":2_0_0" dir="s" state="M"/>
    <connection from="3to2" to="2to3" fromLane="0" toLane="0" via=":2_1_0" dir="t" state="m"/>

    <connection from=":1_0" to="1to2" fromLane="0" toLane="0" dir="t" state="M"/>
    <connection from=":2_0" to="2to1" fromLane="0" toLane="0" dir="s" state="M"/>
    <connection from=":2_1" to="2to3" fromLane="0" toLane="0" via=":2_4_0" dir="t" state="m"/>
    <connection from=":2_4" to="2to3" fromLane="0" toLane="0" dir="t" state="M"/>
    <connection from=":2_2" to="2to3" fromLane="0" toLane="0" dir="s" state="M"/>
    <connection from=":2_3" to="2to1" fromLane="0" toLane="0" via=":2_5_0" dir="t" state="m"/>
    <connection from=":2_5" to="2to1" fromLane="0" toLane="0" dir="t" state="M"/>
    <connection from=":3_0" to="3to2" fromLane="0" toLane="0" dir="t" state="M"/>

</net>
